Version 4
SHEET 1 880 680
WIRE 336 80 144 80
WIRE 336 112 336 80
WIRE 336 112 272 112
WIRE 400 112 336 112
WIRE 272 144 272 112
WIRE 400 144 400 112
WIRE 48 160 -112 160
WIRE 48 192 48 160
WIRE 144 192 144 80
WIRE -112 224 -112 160
WIRE 400 224 400 208
WIRE 544 224 400 224
WIRE 272 240 272 208
WIRE 272 240 224 240
WIRE 272 256 272 240
WIRE 400 256 400 224
WIRE 544 256 544 224
WIRE 272 352 272 320
WIRE 336 352 272 352
WIRE 400 352 400 320
WIRE 400 352 336 352
WIRE -112 384 -112 304
WIRE 48 384 48 272
WIRE 48 384 -112 384
WIRE 224 384 224 240
WIRE 544 384 544 320
WIRE 544 384 224 384
WIRE 144 416 144 272
WIRE 336 416 336 352
WIRE 336 416 144 416
FLAG 544 384 0
SYMBOL voltage -112 208 R0
WINDOW 123 0 0 Left 0
WINDOW 39 0 0 Left 0
SYMATTR InstName V1
SYMATTR Value SINE(0 325.26 50)
SYMBOL ind2 32 176 R0
SYMATTR InstName L1
SYMATTR SpiceLine Rser=0.001
SYMATTR Value 2116H
SYMATTR Type ind
SYMBOL ind2 128 176 R0
SYMATTR InstName L2
SYMATTR Value 9H
SYMATTR Type ind
SYMBOL diode 384 144 R0
SYMATTR InstName D1
SYMBOL diode 256 256 R0
SYMATTR InstName D2
SYMBOL diode 288 208 R180
WINDOW 0 24 64 Left 2
WINDOW 3 24 0 Left 2
SYMATTR InstName D3
SYMBOL diode 416 320 R180
WINDOW 0 24 64 Left 2
WINDOW 3 24 0 Left 2
SYMATTR InstName D4
SYMBOL cap 528 256 R0
SYMATTR InstName C1
SYMATTR Value 2000µF
TEXT 56 128 Left 2 !K L1 L2 1
TEXT -144 424 Left 2 !.tran 0 60ms 0 1ms
